Version 4
SHEET 1 1812 680
WIRE -48 -272 -48 -288
WIRE 144 -272 144 -288
WIRE -48 -176 -48 -192
WIRE 144 -176 144 -192
WIRE -944 -80 -1040 -80
WIRE -784 -80 -880 -80
WIRE -1184 -64 -1184 -112
WIRE -1184 -64 -1232 -64
WIRE -1136 -64 -1184 -64
WIRE -1232 -32 -1232 -64
WIRE 432 -32 -48 -32
WIRE 512 -32 480 -32
WIRE 176 16 144 16
WIRE 416 16 176 16
WIRE 656 16 496 16
WIRE 784 16 656 16
WIRE 1024 16 864 16
WIRE 1200 16 1200 0
WIRE 1200 16 1024 16
WIRE 1392 16 1200 16
WIRE -1136 32 -1136 -64
WIRE -1040 32 -1040 -80
WIRE -1024 32 -1040 32
WIRE -880 32 -944 32
WIRE -784 32 -784 -80
WIRE -784 32 -816 32
WIRE -432 64 -432 48
WIRE 1024 80 1024 16
WIRE -1232 96 -1232 48
WIRE 1392 96 1392 16
WIRE 1200 112 1200 16
WIRE 176 128 176 16
WIRE 656 144 656 16
WIRE -432 176 -432 144
WIRE -352 176 -432 176
WIRE 1024 176 1024 144
WIRE -1232 192 -1232 160
WIRE -1136 192 -1136 112
WIRE -1136 192 -1232 192
WIRE -1040 192 -1040 32
WIRE -1040 192 -1136 192
WIRE -992 192 -1040 192
WIRE -48 192 -48 -32
WIRE -48 192 -288 192
WIRE 1664 192 1472 192
WIRE 1808 192 1744 192
WIRE -784 208 -784 32
WIRE -784 208 -928 208
WIRE -496 208 -784 208
WIRE -352 208 -496 208
WIRE 1392 208 1392 176
WIRE -1136 224 -1136 192
WIRE -992 224 -1008 224
WIRE 1472 224 1472 192
WIRE 1472 224 1440 224
WIRE -1008 256 -1008 224
WIRE -496 256 -496 208
WIRE 1808 272 1808 192
WIRE 1808 272 1440 272
WIRE 176 320 176 208
WIRE 656 320 656 208
WIRE 656 320 176 320
WIRE 1024 320 1024 256
WIRE 1024 320 656 320
WIRE 1200 320 1200 192
WIRE 1200 320 1024 320
WIRE 1392 320 1392 288
WIRE 1392 320 1200 320
WIRE -1136 336 -1136 304
WIRE 656 336 656 320
FLAG 656 336 0
FLAG 1200 0 Vo
IOPIN 1200 0 Out
FLAG 144 -176 0
FLAG 144 -288 Vref
IOPIN 144 -288 Out
FLAG -1136 336 0
FLAG -1008 256 Vref
IOPIN -1008 256 In
FLAG -48 -176 0
FLAG -48 -288 Vsup
FLAG -960 176 Vsup
FLAG -960 240 0
FLAG -432 48 0
FLAG -320 160 Vsup
FLAG -320 224 0
FLAG 512 -32 0
FLAG -1184 -112 Vo
IOPIN -1184 -112 In
FLAG -496 256 DutyCycle
FLAG 144 16 Vin
SYMBOL voltage 176 112 R0
WINDOW 123 0 0 Left 0
WINDOW 39 0 0 Left 0
SYMATTR InstName Vin
SYMATTR Value PWL(0 5 5m 5 5.00001m 4 10m 4)
SYMBOL sw 512 16 R90
SYMATTR InstName Switch1
SYMATTR Value MYSW
SYMBOL diode 672 208 R180
WINDOW 0 24 64 Left 2
WINDOW 3 24 0 Left 2
SYMATTR InstName D1
SYMBOL ind 768 32 R270
WINDOW 0 32 56 VTop 2
WINDOW 3 5 56 VBottom 2
SYMATTR InstName L1
SYMATTR Value 10µ
SYMBOL cap 1008 80 R0
SYMATTR InstName C1
SYMATTR Value 10µ
SYMBOL res 1008 160 R0
SYMATTR InstName ESR
SYMATTR Value 10m
SYMBOL res 1184 96 R0
SYMATTR InstName RL1
SYMATTR Value 1.1
SYMBOL Opamps\\UniversalOpamp2 -960 208 R0
SYMATTR InstName U1
SYMBOL voltage 144 -288 R0
SYMATTR InstName V1
SYMATTR Value 1.2
SYMBOL res -1248 -48 R0
SYMATTR InstName RF3
SYMATTR Value 634
SYMBOL res -1152 16 R0
SYMATTR InstName RF1
SYMATTR Value 20k
SYMBOL cap -1248 96 R0
SYMATTR InstName CF3
SYMATTR Value 2.2n
SYMBOL res -1152 208 R0
SYMATTR InstName RF2
SYMATTR Value 11.5k
SYMBOL res -928 16 R90
WINDOW 0 0 56 VBottom 2
WINDOW 3 32 56 VTop 2
SYMATTR InstName RC1
SYMATTR Value 2.05k
SYMBOL cap -816 16 R90
WINDOW 0 0 32 VBottom 2
WINDOW 3 32 32 VTop 2
SYMATTR InstName Cc1
SYMATTR Value 47n
SYMBOL cap -880 -96 R90
WINDOW 0 0 32 VBottom 2
WINDOW 3 32 32 VTop 2
SYMATTR InstName Cc2
SYMATTR Value 750p
SYMBOL voltage -48 -288 R0
WINDOW 123 0 0 Left 0
WINDOW 39 0 0 Left 0
SYMATTR InstName V2
SYMATTR Value 5
SYMBOL Opamps\\UniversalOpamp2 -320 192 R0
SYMATTR InstName U2
SYMBOL voltage -432 160 R180
WINDOW 123 0 0 Left 0
WINDOW 39 0 0 Left 0
SYMATTR InstName V3
SYMATTR Value PULSE(0 1.8 0 5u 0.1n 0.1n 5u)
SYMBOL sw 1392 304 R180
SYMATTR InstName Switch2
SYMATTR Value MYSW
SYMBOL res 1376 80 R0
SYMATTR InstName RL2
SYMATTR Value 2.2
SYMBOL voltage 1648 192 R270
WINDOW 123 0 0 Left 0
WINDOW 39 0 0 Left 0
SYMATTR InstName Vin2
SYMATTR Value PWL(0 0 5m 0 5.00001m 0 10m 0)
SYMBOL voltage -240 -288 R0
WINDOW 123 0 0 Left 0
WINDOW 39 0 0 Left 0
SYMATTR InstName V4
SYMATTR Value 5
TEXT 280 448 Left 2 !.tran 0.01
TEXT 272 392 Left 2 !.model MYSW SW(Ron=0.1m Roff=1Meg Vt=.5 Vh=-.4)
