Version 4
SHEET 1 1000 680
WIRE -320 -224 -320 -240
WIRE -128 -224 -128 -240
WIRE -320 -128 -320 -144
WIRE -128 -128 -128 -144
WIRE -1216 -32 -1312 -32
WIRE -1056 -32 -1152 -32
WIRE -1456 -16 -1456 -64
WIRE -1456 -16 -1504 -16
WIRE -1408 -16 -1456 -16
WIRE -1504 16 -1504 -16
WIRE 160 16 -320 16
WIRE 240 16 208 16
WIRE 144 64 -16 64
WIRE 384 64 224 64
WIRE 512 64 384 64
WIRE 752 64 592 64
WIRE 928 64 928 48
WIRE 928 64 752 64
WIRE -1408 80 -1408 -16
WIRE -1312 80 -1312 -32
WIRE -1296 80 -1312 80
WIRE -1152 80 -1216 80
WIRE -1056 80 -1056 -32
WIRE -1056 80 -1088 80
WIRE -704 112 -704 96
WIRE 752 128 752 64
WIRE -1504 144 -1504 96
WIRE 928 160 928 64
WIRE -16 176 -16 64
WIRE 384 192 384 64
WIRE -704 224 -704 192
WIRE -624 224 -704 224
WIRE 752 224 752 192
WIRE -1504 240 -1504 208
WIRE -1408 240 -1408 160
WIRE -1408 240 -1504 240
WIRE -1312 240 -1312 80
WIRE -1312 240 -1408 240
WIRE -1264 240 -1312 240
WIRE -320 240 -320 16
WIRE -320 240 -560 240
WIRE -1056 256 -1056 80
WIRE -1056 256 -1200 256
WIRE -624 256 -1056 256
WIRE -1408 272 -1408 240
WIRE -1264 272 -1280 272
WIRE -1280 304 -1280 272
WIRE -16 368 -16 256
WIRE 384 368 384 256
WIRE 384 368 -16 368
WIRE 752 368 752 304
WIRE 752 368 384 368
WIRE 928 368 928 240
WIRE 928 368 752 368
WIRE -1408 384 -1408 352
WIRE 384 384 384 368
FLAG 384 384 0
FLAG 928 48 Vo
IOPIN 928 48 Out
FLAG -128 -128 0
FLAG -128 -240 Vref
IOPIN -128 -240 Out
FLAG -1408 384 0
FLAG -1280 304 Vref
IOPIN -1280 304 In
FLAG -320 -128 0
FLAG -320 -240 Vsup
FLAG -1232 224 Vsup
FLAG -1232 288 0
FLAG -704 96 0
FLAG -592 208 Vsup
FLAG -592 272 0
FLAG 240 16 0
FLAG -1456 -64 Vo
IOPIN -1456 -64 In
SYMBOL voltage -16 160 R0
WINDOW 123 0 0 Left 0
WINDOW 39 0 0 Left 0
SYMATTR InstName Vin1
SYMATTR Value PWL(0 4 5m 4 5.00001m 5 10m 5)
SYMBOL sw 240 64 R90
SYMATTR InstName Switch1
SYMATTR Value MYSW
SYMBOL diode 400 256 R180
WINDOW 0 24 64 Left 2
WINDOW 3 24 0 Left 2
SYMATTR InstName D1
SYMBOL ind 496 80 R270
WINDOW 0 32 56 VTop 2
WINDOW 3 5 56 VBottom 2
SYMATTR InstName L1
SYMATTR Value 10µ
SYMBOL cap 736 128 R0
SYMATTR InstName C1
SYMATTR Value 10µ
SYMBOL res 736 208 R0
SYMATTR InstName ESR1
SYMATTR Value 10m
SYMBOL res 912 144 R0
SYMATTR InstName RL1
SYMATTR Value 1.1
SYMBOL Opamps\\UniversalOpamp2 -1232 256 R0
SYMATTR InstName U1
SYMBOL voltage -128 -240 R0
SYMATTR InstName V1
SYMATTR Value 1.2
SYMBOL res -1520 0 R0
SYMATTR InstName RF3
SYMATTR Value 510
SYMBOL res -1424 64 R0
SYMATTR InstName RF1
SYMATTR Value 16k
SYMBOL cap -1520 144 R0
SYMATTR InstName CF1
SYMATTR Value 2.2n
SYMBOL res -1424 256 R0
SYMATTR InstName RF2
SYMATTR Value 9.1k
SYMBOL res -1200 64 R90
WINDOW 0 0 56 VBottom 2
WINDOW 3 32 56 VTop 2
SYMATTR InstName RC1
SYMATTR Value 2.6k
SYMBOL cap -1088 64 R90
WINDOW 0 0 32 VBottom 2
WINDOW 3 32 32 VTop 2
SYMATTR InstName Cc1
SYMATTR Value 28n
SYMBOL cap -1152 -48 R90
WINDOW 0 0 32 VBottom 2
WINDOW 3 32 32 VTop 2
SYMATTR InstName Cc2
SYMATTR Value 620p
SYMBOL voltage -320 -240 R0
WINDOW 123 0 0 Left 0
WINDOW 39 0 0 Left 0
SYMATTR InstName V2
SYMATTR Value 5
SYMBOL Opamps\\UniversalOpamp2 -592 240 R0
SYMATTR InstName U2
SYMBOL voltage -704 208 R180
WINDOW 123 0 0 Left 0
WINDOW 39 0 0 Left 0
SYMATTR InstName V3
SYMATTR Value PULSE(0 1.8 0 5u 0.1n 0.1n 5u)
TEXT 8 496 Left 2 !.tran 0.01
TEXT 0 440 Left 2 !.model MYSW SW(Ron=0.1m Roff=1Meg Vt=.5 Vh=-.4)
